338
Exposed_atoms
C 25.202004 4.748950 -8.999979
C 21.670974 6.555048 2.837003
C 32.723956 7.799990 12.874018
C 40.536958 1.880953 9.725045
C 36.959008 1.413981 6.315973
C 21.984988 3.101986 -6.198021
C 18.377990 6.372028 -4.883001
C 20.864049 7.193007 -10.256019
C 25.195956 6.497044 -11.662990
C 25.359005 4.673985 -3.546999
C 29.189033 4.279013 0.429030
C 26.821032 7.929028 -4.977964
C 26.997969 16.353955 7.281999
C 19.221019 6.460019 2.735032
C 30.586994 1.673029 4.728028
C 24.269981 3.501036 10.093038
C 20.564979 6.651022 9.190967
C 22.714986 9.380028 10.846006
C 20.494974 9.194997 7.225989
C 19.948000 8.083002 3.710002
C 23.224026 11.215962 8.152954
C 26.252952 10.613965 11.136039
C 25.611952 15.833955 5.297032
C 17.976976 13.066038 2.193041
C 20.391031 13.777968 -14.881023
C 21.880040 12.623006 -3.013038
C 26.703044 12.745984 -12.120023
C 25.717019 12.881002 -12.178993
C 26.966977 22.818009 -2.783981
C 25.034997 23.928962 -2.778989
C 30.341021 16.834958 -7.916028
C 28.143990 19.707996 -7.573985
C 28.556014 14.808044 -7.953985
C 34.899026 14.032950 -8.082035
C 29.494963 12.112998 -11.973032
C 32.529979 6.272964 -9.624969
C 32.435047 14.380993 -12.087030
C 35.884017 14.959018 -5.182049
C 29.543988 19.242007 -4.041030
C 29.028977 17.241970 8.732972
C 31.100973 10.226972 10.382042
C 29.976986 8.922000 0.477037
C 38.461009 10.365040 -1.381038
C 41.309041 2.738956 12.683996
C 35.717012 4.747017 12.895983
C 27.562964 4.636015 15.564977
C 41.847982 1.911992 12.899994
C 31.180971 -0.374025 16.460034
C 30.634028 -1.825981 14.372952
C 40.759969 2.834952 11.442015
C 35.363973 1.326012 4.493989
C 35.863986 1.878997 9.941982
C 27.699977 4.240980 0.800021
C 21.842980 -0.337985 -10.659973
C 22.162981 1.140022 -10.496015
C 20.139982 5.725048 -8.434984
C 21.930994 4.526990 -11.889027
C 20.763038 5.763965 -9.815987
C 19.890035 7.711009 -10.748970
C 17.029951 8.659963 -7.573027
C 22.209049 3.990986 -5.748037
C 18.156985 9.621960 -7.885030
C 20.370025 15.076988 -14.046971
C 22.080954 9.338042 -10.469007
C 25.170970 5.175960 -2.702993
C 26.093961 6.992011 -9.556954
C 25.295020 6.086020 -10.482989
C 22.714044 -1.002998 -11.709008
C 24.056044 3.960038 -10.732993
C 23.634985 1.471009 -10.787993
C 24.128012 2.657014 -9.977984
C 26.602016 6.443010 -7.457986
C 23.640014 4.327009 -7.307976
C 24.607960 6.745041 -5.999022
C 23.756036 5.431983 -0.703977
C 24.065022 4.842980 -1.913021
C 30.313961 2.855036 -2.948014
C 25.991974 6.206014 -2.299040
C 20.525026 8.374042 -1.204001
C 20.523964 6.960012 -1.712043
C 19.271984 9.649007 -6.890960
C 19.728031 6.922050 -2.982005
C 19.768031 12.067968 0.994966
C 19.839046 5.587982 -3.695960
C 18.957042 5.611044 -4.709985
C 18.933022 4.717044 -5.326006
C 23.090965 4.780005 -6.286020
C 22.994981 5.152025 -0.152024
C 23.441009 4.100023 -2.270012
C 22.321971 3.159036 8.621040
C 20.627041 4.778043 -3.216968
C 21.272990 5.528996 2.269975
C 21.128960 -0.007026 10.192026
C 26.815002 4.170966 4.669959
C 23.343967 5.404956 4.232957
C 23.841952 3.337960 8.644964
C 23.982011 3.632008 5.822011
C 24.527047 4.875042 3.406013
C 27.101038 3.157036 -0.062956
C 23.231975 4.227979 13.768972
C 26.915008 3.604010 13.417031
C 27.408961 1.920954 16.225967
C 25.328035 5.488013 15.334045
C 23.474009 2.738046 14.032983
C 22.385968 0.282014 13.110017
C 21.711951 1.365975 13.017047
C 21.082044 1.116044 11.894029
C 21.609992 0.200022 11.034043
C 22.468049 -0.242979 11.266015
C 20.051022 1.800970 11.384980
C 19.748999 2.604988 11.927021
C 19.625020 1.542998 10.551972
C 22.132033 2.062965 14.200981
C 23.243012 6.966031 13.483999
C 20.499001 8.130993 9.547028
C 21.031019 9.225970 8.674004
C 26.795039 9.223970 13.159040
C 24.930991 8.332974 11.650956
C 19.490026 7.672955 0.988981
C 18.973983 7.024954 3.519973
C 19.372035 9.469962 3.607023
C 19.103968 11.626023 0.397020
C 17.504994 12.539969 1.496025
C 20.012045 15.654979 -0.787981
C 27.337955 14.740996 1.365954
C 26.793973 13.020967 9.180997
C 26.785030 12.204013 7.204950
C 24.497044 10.381959 5.797022
C 22.276978 13.617970 3.381015
C 21.617003 13.241027 2.737972
C 20.262987 13.459958 2.934043
C 19.940972 14.036007 3.681982
C 23.245002 16.309988 5.498036
C 22.988030 16.931043 2.833996
C 20.965039 16.578974 1.611982
C 20.198982 20.994006 1.517969
C 20.063954 20.150970 0.558006
C 19.709980 19.096003 1.089954
C 22.703974 18.457997 2.941007
C 26.073035 16.961049 6.231990
C 27.314005 16.315047 3.967987
C 26.776013 20.008994 0.910997
C 23.455953 19.184035 2.034014
C 25.192049 23.831960 -0.277987
C 25.924019 23.410032 -0.767967
C 26.668003 18.708037 0.093961
C 25.984039 20.957974 0.547973
C 26.706998 22.969039 -0.264040
C 25.983953 23.361033 -2.060042
C 24.254988 24.388007 -2.259998
C 22.222020 19.407973 -1.887039
C 20.351980 20.658959 -0.834984
C 21.785034 20.781031 -1.388966
C 24.124981 19.612975 -3.277043
C 22.607969 16.928048 -5.725996
C 21.597033 15.851006 -5.449002
C 22.308043 15.922018 -12.761975
C 23.743018 16.518978 -12.877002
C 19.354970 16.104031 -14.518033
C 21.740010 15.647032 -13.945991
C 22.322999 15.860007 -14.771983
C 20.495966 12.718972 -14.194006
C 21.732037 15.697998 -11.660039
C 20.324044 13.849034 -16.146023
C 21.103008 11.417988 -9.870956
C 21.304969 15.055971 -8.208993
C 21.396024 10.291979 -9.480026
C 23.945036 12.082993 -10.415031
C 19.599007 10.482958 -2.837026
C 17.358976 10.960028 -7.971014
C 20.715978 12.060985 -5.362987
C 21.797021 14.460955 -6.562973
C 26.740024 10.036023 -9.723993
C 24.768989 11.413031 -10.424967
C 27.464967 12.865973 -13.191002
C 27.289992 13.154046 -15.156996
C 26.743984 13.107005 -14.295963
C 25.787951 13.226037 -14.272047
C 25.375009 15.107045 -9.922007
C 24.969996 17.793954 -6.371954
C 26.663008 16.628975 -11.510965
C 25.677007 16.015997 -11.119038
C 25.363976 17.617961 -7.593041
C 26.120036 19.956975 -6.169004
C 27.219013 22.038021 -5.070049
C 26.138019 20.985970 -5.046956
C 24.983964 23.964983 -3.755953
C 26.682994 23.126014 -4.202020
C 29.863991 18.429050 -3.602003
C 29.874046 17.260979 -4.491020
C 31.283006 16.606971 -4.526958
C 29.319969 17.881025 -5.871039
C 33.220001 15.029992 -9.434016
C 31.081991 13.877016 -11.638953
C 32.539951 14.344982 -13.562008
C 30.948015 12.387970 -12.029000
C 31.667008 6.523023 -8.380042
C 29.336021 12.901046 -13.955976
C 28.801998 12.668030 -13.160034
C 29.854986 8.255042 -7.211985
C 35.030049 9.510034 -5.714958
C 31.188001 8.885961 -1.924026
C 35.557986 9.986015 -7.000040
C 36.002980 10.923004 -7.110015
C 39.796964 9.938006 -3.413029
C 39.244009 11.104988 -3.072982
C 40.341016 9.875005 -4.254012
C 35.590970 10.351983 -4.603961
C 35.500987 9.260955 -8.087027
C 35.061034 8.108005 -8.068986
C 34.994020 13.374008 -9.431995
C 37.053047 8.817978 -12.467968
C 37.420001 9.355028 -9.975040
C 38.060009 10.675994 -11.859031
C 37.501995 9.582018 -11.509044
C 33.614955 13.598022 -11.456025
C 34.253991 12.715974 -12.090954
C 36.831990 11.850992 -9.550049
C 34.280988 15.366993 -8.380956
C 35.843022 12.874991 -5.053965
C 36.708997 12.740952 -5.519032
C 39.947028 12.076988 -4.704029
C 35.326019 14.149963 -4.895988
C 33.683001 15.289017 -4.285040
C 33.329981 13.282964 -3.919026
C 39.404016 12.155004 -3.875956
C 38.970019 13.025007 -3.630974
C 34.038012 14.378011 -4.347985
C 37.778035 12.353047 -1.619017
C 37.058988 11.946963 -0.341978
C 38.507021 11.155033 -1.965966
C 34.706041 11.325050 0.285954
C 32.646967 12.479959 -0.102049
C 35.598994 11.802989 -0.823969
C 30.510998 15.880990 -1.680991
C 29.849049 15.178957 -1.408986
C 27.663989 22.358033 -2.490954
C 29.036047 15.399049 -0.272024
C 29.126009 16.250038 0.230046
C 27.856987 14.257024 2.715953
C 27.630967 20.034969 1.885979
C 27.601027 17.390963 8.216048
C 28.325987 13.244999 10.696982
C 29.043960 13.064993 10.041950
C 29.058050 17.111013 10.224011
C 30.007954 13.110006 10.322961
C 30.520017 13.327034 2.755003
C 30.657046 12.458951 8.096980
C 29.688963 12.419032 7.840017
C 29.540980 11.281972 5.343042
C 33.274049 9.120018 9.901039
C 35.496004 8.214012 7.458984
C 35.616967 8.807989 8.369028
C 33.996040 10.006964 6.775962
C 36.765981 8.272997 10.655044
C 33.224033 8.718989 13.556979
C 33.129036 9.953991 10.434979
C 28.338042 9.305978 13.328026
C 30.305988 10.382043 4.828981
C 30.749044 10.308955 3.401958
C 34.020995 10.379966 2.769975
C 34.874032 9.727014 2.125028
C 35.844038 9.426986 0.396968
C 36.668986 9.171028 5.137013
C 35.492017 8.785954 5.163960
C 35.497999 8.458955 2.696969
C 39.676016 9.131971 -2.840011
C 38.277964 5.436027 10.317964
C 39.246044 4.290989 10.049963
C 37.632044 5.721035 8.931016
C 37.049981 7.130042 8.776018
C 36.217024 7.120012 7.502955
C 31.234027 7.508020 12.878031
C 29.645997 4.234962 11.541037
C 28.056000 6.059956 15.570020
C 29.624973 3.919017 15.133976
C 35.823005 6.521983 12.976028
C 34.931033 7.233037 11.932048
C 40.026955 3.950013 11.221039
C 40.035032 4.636029 11.995012
C 35.025040 4.075010 14.688954
C 33.241987 3.795953 14.334958
C 31.685015 2.194037 16.088989
C 32.998006 2.321968 14.097032
C 41.195029 3.442040 13.358956
C 33.916003 0.534952 12.641019
C 31.287026 -3.005037 13.704967
C 33.776036 -0.330018 13.551024
C 31.271997 -1.678006 15.733003
C 29.789010 0.270048 16.646991
C 28.526005 2.386001 15.828002
C 29.660952 1.420986 15.586967
C 28.690952 3.666964 15.468973
C 30.848032 1.586992 13.108027
C 33.528031 1.212958 9.405030
C 33.641035 2.183030 8.214000
C 32.503002 0.518024 9.515041
C 29.004987 1.418041 8.619964
C 36.123029 -0.047043 11.397986
C 34.582973 0.177042 11.315007
C 36.779990 1.221046 10.991985
C 41.512983 1.035987 10.905044
C 40.988039 1.786959 10.646042
C 37.293963 2.078968 6.978035
C 35.582009 0.363019 4.327032
C 33.922007 1.460961 3.001007
C 34.396029 1.965990 3.710973
C 38.169996 3.532994 2.351038
C 35.658013 3.343980 5.697953
C 36.735996 3.770996 2.101953
C 36.538015 5.127046 1.468998
C 36.475966 6.242005 2.494039
C 36.284955 6.249983 6.622039
C 35.334960 7.125954 1.952990
C 33.058042 3.947967 3.014962
C 30.611035 5.096010 2.309978
C 31.598955 3.340004 3.242972
C 29.270964 1.374029 7.091040
C 32.413018 1.305986 6.595004
C 30.063983 2.176954 1.242005
C 28.066968 1.472976 6.264998
C 28.118034 2.275969 5.678956
C 31.490977 4.040997 -1.203036
C 27.963015 3.143025 -1.338997
C 30.476978 1.310995 -2.739013
C 31.482042 4.599951 -4.195026
C 31.689997 4.320970 -7.483969
C 31.966994 1.055043 -3.075988
C 32.721963 4.985987 -5.016990
C 27.571015 6.920983 -9.928978
C 30.901002 7.434953 -11.203969
C 30.581003 5.444008 -3.980969
C 31.934982 5.536003 -7.229963
C 33.145028 6.647039 -11.994961
C 34.219024 7.878982 -1.327983
C 35.770050 6.791973 -2.380005
C 33.755999 5.440002 -4.031998
C 32.409950 2.237959 -3.982003
